<?xml version="1.0" encoding="UTF-8"?>
<!DOCTYPE network SYSTEM "http://www.matsim.org/files/dtd/network_v2.dtd">
<network>

<!-- ====================================================================== -->

	<nodes>
		<node id="-330621" x="914997.7465349644" y="5039283.755389434" >
		</node>
		<node id="-330622" x="914879.1574300237" y="5038985.896256563" >
		</node>
		<node id="10199274329" x="915199.8133150459" y="5039316.705425747" >
		</node>
		<node id="10199274331" x="915171.4310902191" y="5039295.271170264" >
		</node>
		<node id="10199274332" x="915193.0923502845" y="5039263.8553416" >
		</node>
		<node id="10199274334" x="915207.806756072" y="5039270.462125923" >
		</node>
		<node id="10199274335" x="915137.3460334209" y="5039271.373858591" >
		</node>
		<node id="10199274337" x="915134.6071736471" y="5039259.633926954" >
		</node>
		<node id="10199274339" x="915153.3842680724" y="5039234.621392991" >
		</node>
		<node id="10199274341" x="915155.8620110892" y="5039284.345900551" >
		</node>
		<node id="10199274342" x="915180.2325330105" y="5039253.81195542" >
		</node>
		<node id="10199274343" x="915141.5018541662" y="5039274.281563081" >
		</node>
		<node id="10199274344" x="915167.0727549226" y="5039243.547949323" >
		</node>
		<node id="1034655518" x="915402.4968759251" y="5039472.760544599" >
		</node>
		<node id="1034655587" x="915319.5407602196" y="5039438.646519264" >
		</node>
		<node id="1034655635" x="915400.8747235059" y="5039464.117898521" >
		</node>
		<node id="1034655756" x="915446.3827982188" y="5039436.276712034" >
		</node>
		<node id="1034655759" x="915527.8151432498" y="5039594.350942526" >
		</node>
		<node id="1034655788" x="915458.8261907077" y="5039361.76482252" >
		</node>
		<node id="1034655800" x="915267.7962901491" y="5039548.718828587" >
		</node>
		<node id="1034655805" x="915434.7697954639" y="5039659.816988524" >
		</node>
		<node id="1034655817" x="915450.9932147183" y="5039667.840854054" >
		</node>
		<node id="1034655842" x="915416.6970704335" y="5039449.677587954" >
		</node>
		<node id="1435066098" x="915164.9676692009" y="5040334.774761669" >
		</node>
		<node id="1435066117" x="915173.0965856293" y="5040264.596754883" >
		</node>
		<node id="1435066119" x="915357.4066277577" y="5039988.25165522" >
		</node>
		<node id="1435066125" x="915193.8332873716" y="5040218.4705511825" >
		</node>
		<node id="1435493289" x="915396.4419475864" y="5040014.609214286" >
		</node>
		<node id="1435493290" x="915210.6656288109" y="5040370.553446136" >
		</node>
		<node id="1435493293" x="915212.3441154143" y="5040359.194631443" >
		</node>
		<node id="1435493298" x="915046.1458938714" y="5040308.255929539" >
		</node>
		<node id="1435493300" x="915228.7043473682" y="5040328.377230445" >
		</node>
		<node id="1435493312" x="915097.2806468639" y="5040360.269832332" >
		</node>
		<node id="1435493314" x="915132.3529075813" y="5040391.373697369" >
		</node>
		<node id="1435493347" x="915214.4454849886" y="5040352.973844648" >
		</node>
		<node id="1435493369" x="915077.3758032261" y="5040334.821105675" >
		</node>
		<node id="1435493375" x="915220.3755033639" y="5040355.429965223" >
		</node>
		<node id="1435493385" x="915219.4438214987" y="5040341.934906622" >
		</node>
		<node id="1435493393" x="915202.5726287528" y="5040253.234366585" >
		</node>
		<node id="1435493407" x="915072.8294067854" y="5040323.084402489" >
		</node>
		<node id="1435493430" x="915210.4761230943" y="5040397.798361992" >
		</node>
		<node id="1435493447" x="915379.3021621052" y="5040003.099460044" >
		</node>
		<node id="1435531929" x="915248.0116241904" y="5039622.522417332" >
		</node>
		<node id="1435531935" x="915336.1430403488" y="5039957.066687813" >
		</node>
		<node id="1435531942" x="915329.2820514909" y="5039977.722829014" >
		</node>
		<node id="1435531943" x="915350.2619413305" y="5039955.411680268" >
		</node>
		<node id="1435531944" x="915285.4254854626" y="5040069.237047453" >
		</node>
		<node id="1435531946" x="915354.5241477962" y="5039953.015720235" >
		</node>
		<node id="1435531951" x="915325.162526573" y="5039966.426975954" >
		</node>
		<node id="1435531952" x="915132.1566939591" y="5039824.90266959" >
		</node>
		<node id="1435531957" x="915161.3695227061" y="5039843.959666554" >
		</node>
		<node id="1435531962" x="915326.3387060638" y="5039990.136066399" >
		</node>
		<node id="1435531963" x="915114.2476106388" y="5039813.59954863" >
		</node>
		<node id="1435531967" x="915366.392928568" y="5039943.301384108" >
		</node>
		<node id="1435546419" x="915492.1160161856" y="5039611.783167969" >
		</node>
		<node id="1435781052" x="915540.590984128" y="5039403.3219275875" >
		</node>
		<node id="1435781131" x="915372.8645146675" y="5039632.46062669" >
		</node>
		<node id="1435781139" x="915419.0972601253" y="5039469.026983732" >
		</node>
		<node id="1435788933" x="915515.7895304831" y="5039452.949947241" >
		</node>
		<node id="1435788937" x="915512.0144991848" y="5039430.854093231" >
		</node>
		<node id="1435788939" x="915462.1009100348" y="5039405.104671641" >
		</node>
		<node id="1435788941" x="915469.3675682049" y="5039390.690063846" >
		</node>
		<node id="1435788944" x="915503.6646807336" y="5039446.904111115" >
		</node>
		<node id="1435788946" x="915519.6991148137" y="5039416.0655051945" >
		</node>
		<node id="1435788949" x="915453.3235111138" y="5039422.509984871" >
		</node>
		<node id="1435795002" x="915518.0413682834" y="5039354.344692565" >
		</node>
		<node id="1435795004" x="915505.1965833405" y="5039385.338464092" >
		</node>
		<node id="1435795005" x="915447.7483583719" y="5039385.779411348" >
		</node>
		<node id="1435805172" x="914856.8637117816" y="5039847.619590244" >
		</node>
		<node id="1435817825" x="915051.1576731408" y="5039805.2581705" >
		</node>
		<node id="1435817836" x="915098.8195656046" y="5039832.328570351" >
		</node>
		<node id="1435817838" x="915067.5102022522" y="5039871.296454594" >
		</node>
		<node id="1435817911" x="914990.9971464683" y="5039825.762887936" >
		</node>
		<node id="1435817920" x="915061.6541340209" y="5039768.1172152" >
		</node>
		<node id="1435832197" x="914855.3395118925" y="5038720.157147236" >
		</node>
		<node id="1435832214" x="914833.2319879878" y="5038802.176134486" >
		</node>
		<node id="1435832249" x="914891.8138512888" y="5038732.818585117" >
		</node>
		<node id="1435832286" x="914840.4681477924" y="5038748.184230107" >
		</node>
		<node id="1435832291" x="914977.4012015092" y="5039362.194440483" >
		</node>
		<node id="1435832293" x="914855.6211225142" y="5039022.581417503" >
		</node>
		<node id="1435832312" x="914876.2369827135" y="5038722.697067462" >
		</node>
		<node id="1435832349" x="914830.3425808647" y="5038883.823662757" >
		</node>
		<node id="1435843451" x="914942.9499523453" y="5039208.23607668" >
		</node>
		<node id="1435843509" x="914945.941206992" y="5039221.398358365" >
		</node>
		<node id="1435850227" x="914865.4627498486" y="5038936.037344189" >
		</node>
		<node id="1435850250" x="914968.4121764789" y="5039292.113239405" >
		</node>
		<node id="1435862894" x="915355.2804581167" y="5039216.746107204" >
		</node>
		<node id="1435862896" x="915206.2466144986" y="5039103.099570569" >
		</node>
		<node id="1435862967" x="915055.755886571" y="5039468.611348013" >
		</node>
		<node id="1435862979" x="915357.7933622898" y="5039158.748904313" >
		</node>
		<node id="1435884494" x="915110.1404373513" y="5039820.312640363" >
		</node>
		<node id="1435884523" x="915141.6039213418" y="5039698.712759041" >
		</node>
		<node id="1435884526" x="915159.0885845597" y="5039703.237685013" >
		</node>
		<node id="1435894707" x="915194.9386690066" y="5039365.843736894" >
		</node>
		<node id="1435894752" x="915288.448499331" y="5039343.438588714" >
		</node>
		<node id="1435894760" x="915299.1863495307" y="5039574.938219472" >
		</node>
		<node id="1435894774" x="915372.1916403465" y="5039316.55092564" >
		</node>
		<node id="1819559331" x="915418.2782534977" y="5039420.293173831" >
		</node>
		<node id="1819559335" x="915427.5850593725" y="5039426.866572764" >
		</node>
		<node id="1819559339" x="915435.1783033325" y="5039384.680487613" >
		</node>
		<node id="2295969962" x="915156.3287545028" y="5039378.187472112" >
		</node>
		<node id="269100931" x="915509.5049595354" y="5039467.730707886" >
		</node>
		<node id="2700659985" x="915240.7977224226" y="5039131.022278972" >
		</node>
		<node id="2860204336" x="915086.8279131714" y="5039189.399660966" >
		</node>
		<node id="2860204337" x="915160.595870974" y="5039122.4982688725" >
		</node>
		<node id="2860258672" x="915033.4020336929" y="5039254.867192407" >
		</node>
		<node id="2860258673" x="915019.4327235819" y="5039275.187953772" >
		</node>
		<node id="2903430421" x="915010.2216676103" y="5039283.226447328" >
		</node>
		<node id="2924096375" x="915379.3218043279" y="5039320.13520174" >
		</node>
		<node id="3051541081" x="914996.1092393317" y="5039264.766242644" >
		</node>
		<node id="3071803285" x="915021.4964902394" y="5039841.891701348" >
		</node>
		<node id="3071803286" x="914952.9269458433" y="5039858.192759973" >
		</node>
		<node id="3071803287" x="915004.6429510808" y="5039865.06775599" >
		</node>
		<node id="3071803288" x="914979.2704789541" y="5039836.547206214" >
		</node>
		<node id="3071803289" x="914909.4540803705" y="5039901.36747322" >
		</node>
		<node id="3071803290" x="914902.4335595473" y="5039996.7113562245" >
		</node>
		<node id="3071803291" x="914914.1915821863" y="5040014.7259694915" >
		</node>
		<node id="3091635581" x="914988.9406101005" y="5039606.720956479" >
		</node>
		<node id="3091635584" x="914964.262932841" y="5039614.797784526" >
		</node>
		<node id="3091635586" x="914966.6374967624" y="5039670.261287148" >
		</node>
		<node id="3097802948" x="915262.8721010131" y="5039655.570875579" >
		</node>
		<node id="3098141885" x="915152.3572839492" y="5040418.7594532" >
		</node>
		<node id="3098141886" x="915136.6149194217" y="5040444.161873791" >
		</node>
		<node id="3098142003" x="915275.5462703987" y="5040113.670868882" >
		</node>
		<node id="3098142051" x="915413.8703578971" y="5039901.085992988" >
		</node>
		<node id="3667488357" x="915614.6853834004" y="5039748.948409244" >
		</node>
		<node id="3713648360" x="914869.5017008286" y="5038861.63975916" >
		</node>
		<node id="3810700628" x="914905.3132594151" y="5038977.451014918" >
		</node>
		<node id="3810700630" x="914914.91097713" y="5038986.184901258" >
		</node>
		<node id="3810700634" x="914903.0592705633" y="5039012.302480738" >
		</node>
		<node id="3812033283" x="914991.7883104603" y="5038853.859786039" >
		</node>
		<node id="3812033285" x="914969.7137244222" y="5038879.034426832" >
		</node>
		<node id="3841654697" x="915019.2906807798" y="5038887.942899453" >
		</node>
		<node id="4354549145" x="915290.8133896275" y="5039120.414510079" >
		</node>
		<node id="4589008320" x="915209.6971541676" y="5040218.593098177" >
		</node>
		<node id="4590513953" x="914998.1782644351" y="5039306.173678651" >
		</node>
		<node id="4789349167" x="915154.3802997535" y="5040278.611792098" >
		</node>
		<node id="4792165870" x="915147.2268048835" y="5040365.791123245" >
		</node>
		<node id="4830826124" x="915509.4235149149" y="5039723.955193649" >
		</node>
		<node id="4878634442" x="915382.5277818281" y="5039514.128402621" >
		</node>
		<node id="4972990088" x="915222.4680016497" y="5039882.6636213055" >
		</node>
		<node id="4972990091" x="915173.4950634441" y="5039880.676485514" >
		</node>
		<node id="5157889159" x="915258.9382657467" y="5039142.184606071" >
		</node>
		<node id="5171288980" x="914856.8042180178" y="5038591.956879086" >
		</node>
		<node id="5222571303" x="915160.0100006755" y="5040305.951201097" >
		</node>
		<node id="5222571311" x="915162.8394914872" y="5040275.868324727" >
		</node>
		<node id="5320657468" x="915434.8256066665" y="5039755.394919842" >
		</node>
		<node id="5320657469" x="915501.6386021267" y="5039655.625579523" >
		</node>
		<node id="5320657470" x="915486.6873872937" y="5039645.36497615" >
		</node>
		<node id="5320657471" x="915420.2984376426" y="5039745.97698386" >
		</node>
		<node id="5320657472" x="915409.910982254" y="5039731.142548995" >
		</node>
		<node id="5320657473" x="915448.742199549" y="5039764.415480596" >
		</node>
		<node id="5320657474" x="915515.6118288058" y="5039665.2190414835" >
		</node>
		<node id="5320657475" x="915473.631606807" y="5039636.40128919" >
		</node>
		<node id="5320657476" x="915368.5068864684" y="5039663.290447131" >
		</node>
		<node id="5320657477" x="915420.2333973647" y="5039688.344756446" >
		</node>
		<node id="5320657478" x="915412.2830663985" y="5039703.47286988" >
		</node>
		<node id="5320657479" x="915361.3164846962" y="5039677.866356146" >
		</node>
		<node id="5320657480" x="915353.2434300487" y="5039694.258353307" >
		</node>
		<node id="5320657481" x="915404.1668276775" y="5039720.040479224" >
		</node>
		<node id="5320657487" x="915428.1194163242" y="5039673.357442147" >
		</node>
		<node id="5320657488" x="915202.3679810578" y="5039821.487105296" >
		</node>
		<node id="5587333097" x="915135.3461563508" y="5040285.186232286" >
		</node>
		<node id="5587333098" x="915157.5970539801" y="5040294.645523529" >
		</node>
		<node id="5590646564" x="914930.1118529058" y="5040006.0260614045" >
		</node>
		<node id="5590646565" x="914903.9731640879" y="5039975.781568214" >
		</node>
		<node id="5590646566" x="914944.7027437894" y="5039998.052857721" >
		</node>
		<node id="5590646567" x="914905.4907537579" y="5039955.185044941" >
		</node>
		<node id="5590646568" x="914954.9844631944" y="5039990.453313161" >
		</node>
		<node id="5590646569" x="914906.6382986668" y="5039939.596015088" >
		</node>
		<node id="5590646570" x="914967.862944915" y="5039979.008692848" >
		</node>
		<node id="5590646571" x="914908.4855690794" y="5039914.602983856" >
		</node>
		<node id="5590646572" x="914915.0240054877" y="5039895.833152854" >
		</node>
		<node id="5590646573" x="914981.2419379717" y="5039967.12855026" >
		</node>
		<node id="5590646574" x="914993.4441746699" y="5039955.806657093" >
		</node>
		<node id="5590646575" x="914926.7272141583" y="5039884.21039689" >
		</node>
		<node id="5590646576" x="914939.7511032529" y="5039871.280229439" >
		</node>
		<node id="5590646577" x="915006.4375214849" y="5039943.220483802" >
		</node>
		<node id="5590646578" x="915018.4647101632" y="5039931.574658782" >
		</node>
		<node id="5590646579" x="914965.6706222887" y="5039847.72104251" >
		</node>
		<node id="5590646580" x="915030.2906488924" y="5039917.739880013" >
		</node>
		<node id="5590646581" x="915040.0978649752" y="5039905.188721834" >
		</node>
		<node id="5590646582" x="915013.6099328448" y="5039852.739980338" >
		</node>
		<node id="5590646583" x="915031.0185759165" y="5039826.398468049" >
		</node>
		<node id="5590646584" x="914997.5713459654" y="5039807.051251992" >
		</node>
		<node id="5590646587" x="915039.6510360825" y="5039812.35270591" >
		</node>
		<node id="5590646588" x="915070.1637209477" y="5039835.656794906" >
		</node>
		<node id="5590646589" x="915053.389092165" y="5039824.674271379" >
		</node>
		<node id="5590646590" x="915026.8797550485" y="5039863.580111954" >
		</node>
		<node id="5590646591" x="915038.9100614483" y="5039877.830623615" >
		</node>
		<node id="5590646592" x="915050.8538118213" y="5039861.381681722" >
		</node>
		<node id="5590646593" x="915060.2026110331" y="5039879.449393718" >
		</node>
		<node id="5614044021" x="914964.6295799507" y="5039121.045614249" >
		</node>
		<node id="5614044022" x="914945.6673805851" y="5039137.678472677" >
		</node>
		<node id="5707081812" x="914910.8560156422" y="5038918.750513376" >
		</node>
		<node id="5707081813" x="914891.3589460499" y="5038970.036143474" >
		</node>
		<node id="5707081815" x="914940.6668277388" y="5038957.883730973" >
		</node>
		<node id="5707081816" x="914920.8147087323" y="5038934.4034121195" >
		</node>
		<node id="5707081820" x="914884.2005605311" y="5038951.031331494" >
		</node>
		<node id="5707082421" x="914894.1299311541" y="5038910.561307744" >
		</node>
		<node id="5707082422" x="914881.0823723994" y="5038887.74241307" >
		</node>
		<node id="5707082424" x="914881.1350528871" y="5038926.840864895" >
		</node>
		<node id="5707082427" x="914896.4621923005" y="5038981.106360345" >
		</node>
		<node id="5707082428" x="914933.0393946156" y="5038947.293916492" >
		</node>
		<node id="6067336163" x="915439.2791688188" y="5039446.205687291" >
		</node>
		<node id="6067336171" x="915365.1224539164" y="5039410.519550469" >
		</node>
		<node id="6067336172" x="915357.6940115938" y="5039427.266596308" >
		</node>
		<node id="6067336176" x="915404.4448510201" y="5039431.406203248" >
		</node>
		<node id="6370119811" x="915377.3077974049" y="5039650.516945147" >
		</node>
		<node id="6818021169" x="915651.8564705164" y="5040183.111778372" >
		</node>
		<node id="6819845949" x="915298.5975533922" y="5039480.842776412" >
		</node>
		<node id="6838035674" x="915126.794323775" y="5039413.702291357" >
		</node>
		<node id="6937387366" x="915251.9410254054" y="5040306.036602158" >
		</node>
		<node id="6937387367" x="915242.3382865044" y="5040300.749147677" >
		</node>
		<node id="6937387368" x="915253.5936933304" y="5040289.599477507" >
		</node>
		<node id="6937387370" x="915249.1671592523" y="5040286.874533672" >
		</node>
		<node id="6937387371" x="915259.069830403" y="5040278.469413573" >
		</node>
		<node id="6937387372" x="915254.587514418" y="5040275.874667438" >
		</node>
		<node id="7010355496" x="915391.5512203814" y="5039747.345246444" >
		</node>
		<node id="7010355497" x="915324.4971286934" y="5039723.319598621" >
		</node>
		<node id="7010355498" x="915229.8887509455" y="5039702.114947742" >
		</node>
		<node id="7010355503" x="915465.6030314122" y="5039792.397541476" >
		</node>
		<node id="7010355508" x="915402.4490261726" y="5039753.153596042" >
		</node>
		<node id="7041088229" x="914950.5476534836" y="5039220.341379046" >
		</node>
		<node id="7041088231" x="914976.8736281595" y="5039298.161454228" >
		</node>
		<node id="7041088233" x="914964.219751929" y="5039250.353617323" >
		</node>
		<node id="7041088252" x="915028.0992545398" y="5038899.458786798" >
		</node>
		<node id="7041088253" x="915008.7598698842" y="5038918.577028549" >
		</node>
		<node id="7041088254" x="914995.5486410826" y="5038907.529107739" >
		</node>
		<node id="7041088281" x="915413.1001233368" y="5039223.6702344315" >
		</node>
		<node id="7041093027" x="915069.6165797515" y="5039868.568197028" >
		</node>
		<node id="7041093028" x="915075.8540923567" y="5039872.327521265" >
		</node>
		<node id="7041102990" x="915290.1597367867" y="5039451.130874276" >
		</node>
		<node id="7041102991" x="915250.5950719768" y="5039445.090529995" >
		</node>
		<node id="7041102992" x="915245.7584467602" y="5039482.226069946" >
		</node>
		<node id="7041102993" x="915271.6068542738" y="5039490.472705931" >
		</node>
		<node id="7041102994" x="915288.9135511179" y="5039500.196645063" >
		</node>
		<node id="7157728655" x="914944.0885218864" y="5040136.954064541" >
		</node>
		<node id="7157728752" x="915168.4002132346" y="5039054.597271492" >
		</node>
		<node id="7157728755" x="915145.40602604" y="5039079.286580214" >
		</node>
		<node id="7157728857" x="915008.3089871467" y="5039437.405369876" >
		</node>
		<node id="7157728862" x="915030.3893576454" y="5039415.455894481" >
		</node>
		<node id="7964597060" x="915685.4764298591" y="5039466.707124691" >
		</node>
		<node id="7964597061" x="915674.188717307" y="5039462.0329027735" >
		</node>
		<node id="8268418767" x="915114.4077071336" y="5039344.73504674" >
		</node>
		<node id="828195034" x="915377.889708709" y="5040026.4812146025" >
		</node>
		<node id="8581420024" x="915423.2528140312" y="5039709.97776238" >
		</node>
		<node id="8581420055" x="915348.2553897442" y="5039708.700941897" >
		</node>
		<node id="8581420058" x="915259.9364472266" y="5039712.948778679" >
		</node>
		<node id="8581420059" x="915248.9822421453" y="5039712.749120358" >
		</node>
		<node id="8581420061" x="915236.4376632562" y="5039715.914300018" >
		</node>
		<node id="8581420062" x="915225.5087373266" y="5039720.804102569" >
		</node>
		<node id="8581420063" x="915277.2919666466" y="5039715.144779299" >
		</node>
		<node id="901052344" x="915041.9858664529" y="5040318.033795684" >
		</node>
		<node id="901054215" x="915217.32367628" y="5040398.027879224" >
		</node>
		<node id="901057163" x="914913.1298740453" y="5040165.290380509" >
		</node>
		<node id="901057238" x="915145.7081271177" y="5040468.929719393" >
		</node>
		<node id="901057722" x="914909.8590944953" y="5040160.299015355" >
		</node>
		<node id="901057848" x="915435.1044191434" y="5040406.637716353" >
		</node>
		<node id="901058392" x="915157.229172321" y="5040382.039057166" >
		</node>
		<node id="901060056" x="915384.8666560717" y="5040054.244707546" >
		</node>
		<node id="901062346" x="915247.9873452228" y="5040289.262315979" >
		</node>
		<node id="901062411" x="915642.5725697842" y="5040177.164194608" >
		</node>
		<node id="901063167" x="915361.8635800632" y="5039981.1266896855" >
		</node>
		<node id="901063219" x="915628.0062403253" y="5039726.92345678" >
		</node>
		<node id="901063545" x="915213.6957240503" y="5040406.055657348" >
		</node>
		<node id="901063580" x="914913.080608218" y="5038759.895478234" >
		</node>
		<node id="901063900" x="915563.1265810105" y="5039666.699331457" >
		</node>
		<node id="901064322" x="915091.3524899341" y="5040367.420422554" >
		</node>
		<node id="901064538" x="914893.9523627728" y="5038788.321993285" >
		</node>
		<node id="901064785" x="915191.1699752621" y="5039415.735729589" >
		</node>
		<node id="901064979" x="915217.9207250352" y="5040365.688669633" >
		</node>
		<node id="901065319" x="915133.8479960231" y="5040464.854397063" >
		</node>
		<node id="901065373" x="915346.1395563248" y="5039975.66869961" >
		</node>
		<node id="901065633" x="915369.6470346132" y="5040401.137093665" >
		</node>
		<node id="901065857" x="915627.1199939812" y="5039711.679550316" >
		</node>
		<node id="901065864" x="914874.2006417664" y="5038716.381525778" >
		</node>
		<node id="901065925" x="915194.1257915976" y="5039377.906879187" >
		</node>
		<node id="901065934" x="915369.1444097374" y="5040043.53161978" >
		</node>
		<node id="901066222" x="915430.8322323471" y="5039940.968471336" >
		</node>
		<node id="901066410" x="915026.8476669978" y="5039457.7646983005" >
		</node>
		<node id="901066429" x="914996.5900359373" y="5039270.343166264" >
		</node>
		<node id="901067113" x="915441.2539298221" y="5040042.53177795" >
		</node>
		<node id="901067409" x="915315.365608246" y="5039133.66321405" >
		</node>
		<node id="901067436" x="915535.6753887832" y="5039710.0376632195" >
		</node>
		<node id="901067464" x="915006.6699629584" y="5039434.842503601" >
		</node>
		<node id="901068481" x="915186.3352037922" y="5039476.881964801" >
		</node>
		<node id="901068597" x="914851.8864790456" y="5038643.703021593" >
		</node>
		<node id="901068674" x="915758.0149254662" y="5039306.710191514" >
		</node>
		<node id="901069328" x="915550.0187680125" y="5039658.524202205" >
		</node>
		<node id="901069395" x="914846.3024075632" y="5039981.356054568" >
		</node>
		<node id="901069574" x="914982.8482315985" y="5039218.413338793" >
		</node>
		<node id="901069751" x="914998.9245159179" y="5039407.006705752" >
		</node>
		<node id="901070028" x="915414.5897906817" y="5039967.006840488" >
		</node>
		<node id="901070152" x="915393.0826379657" y="5040002.281300651" >
		</node>
		<node id="901070200" x="914845.3654508272" y="5038706.991472777" >
		</node>
		<node id="901070712" x="915309.2114478659" y="5039947.39786565" >
		</node>
		<node id="901070833" x="915788.7206253784" y="5039321.683787599" >
		</node>
		<node id="901070838" x="914969.7520787565" y="5039448.604438687" >
		</node>
		<node id="905116641" x="915251.0830444645" y="5040282.984538204" >
		</node>
		<node id="905117024" x="915089.0499906333" y="5040277.59675616" >
		</node>
		<node id="905117452" x="915198.5604860263" y="5040237.817468273" >
		</node>
		<node id="905117475" x="915050.7088909242" y="5040313.912959383" >
		</node>
		<node id="905117603" x="915223.7733351538" y="5040276.202980633" >
		</node>
		<node id="905117604" x="915327.4096712442" y="5039954.793354477" >
		</node>
		<node id="905117646" x="915236.8350392308" y="5040311.933215075" >
		</node>
		<node id="905117694" x="915235.0337682804" y="5040290.425462501" >
		</node>
		<node id="905117790" x="915204.6662501934" y="5040271.391894054" >
		</node>
		<node id="905118479" x="915327.4897537148" y="5039970.229303144" >
		</node>
		<node id="905118689" x="915183.4901782733" y="5040270.527703555" >
		</node>
		<node id="905118768" x="915085.5835500048" y="5040287.46506841" >
		</node>
		<node id="905118853" x="915075.3284623579" y="5040304.181665581" >
		</node>
		<node id="9370711212" x="915198.4930428693" y="5039844.5498528555" >
		</node>
		<node id="9370711213" x="915204.3348562105" y="5039866.190698341" >
		</node>
		<node id="9370711214" x="915180.6229490391" y="5039851.3351475075" >
		</node>
		<node id="9370739420" x="915179.2996278421" y="5039855.196432525" >
		</node>
		<node id="9370739423" x="915205.0403899394" y="5039849.925288699" >
		</node>
		<node id="9370739424" x="915207.3059525143" y="5039857.874013134" >
		</node>
		<node id="9370739426" x="915182.9762181038" y="5039847.964954254" >
		</node>
		<node id="9370739429" x="915192.6813987553" y="5039871.579345586" >
		</node>
		<node id="9370739431" x="915196.9589279502" y="5039871.092199607" >
		</node>
		<node id="9370739433" x="915179.5984636495" y="5039861.00779847" >
		</node>
		<node id="9370739436" x="915190.0373143038" y="5039843.901742895" >
		</node>
		<node id="9370739438" x="915211.6758458778" y="5039867.289548419" >
		</node>
		<node id="9370739439" x="915204.612229032" y="5039873.650981321" >
		</node>
		<node id="9377439195" x="915179.1751294998" y="5039858.1346986545" >
		</node>
		<node id="9377439196" x="915184.3816030795" y="5039868.453457017" >
		</node>
		<node id="9451389114" x="915393.3643409372" y="5039714.573158538" >
		</node>
		<node id="9451389115" x="915384.5792181406" y="5039729.724199924" >
		</node>
		<node id="9451397930" x="915151.8231153119" y="5039914.300597071" >
		</node>
		<node id="9451397931" x="915227.1813455382" y="5039969.188033906" >
		</node>
		<node id="9451397932" x="915129.2343485367" y="5040104.792083912" >
		</node>
		<node id="9451397933" x="915054.673513449" y="5040046.064469976" >
		</node>
	</nodes>

<!-- ====================================================================== -->

	<links capperiod="01:00:00" effectivecellsize="7.5" effectivelanewidth="3.75">
		<link id="1" from="-330622" to="5707082427" length="17.997506061366604" freespeed="5.555555555555555" capacity="600.0" permlanes="1.0" oneway="1" modes="car" >
			<attributes>
				<attribute name="origid" class="java.lang.String">-154115</attribute>
				<attribute name="type" class="java.lang.String">tertiary</attribute>
			</attributes>
		</link>
		<link id="10" from="8581420024" to="5320657472" length="25.019046097884974" freespeed="5.555555555555555" capacity="600.0" permlanes="1.0" oneway="1" modes="car" >
			<attributes>
				<attribute name="origid" class="java.lang.String">924632862</attribute>
				<attribute name="type" class="java.lang.String">tertiary</attribute>
			</attributes>
		</link>
		<link id="100" from="1435817911" to="5590646582" length="35.20087530414925" freespeed="5.555555555555555" capacity="600.0" permlanes="1.0" oneway="1" modes="car" >
			<attributes>
				<attribute name="origid" class="java.lang.String">130332629</attribute>
				<attribute name="type" class="java.lang.String">tertiary</attribute>
			</attributes>
		</link>
		<link id="101" from="1435817911" to="3071803288" length="15.931611710719626" freespeed="5.555555555555555" capacity="600.0" permlanes="1.0" oneway="1" modes="car" >
			<attributes>
				<attribute name="origid" class="java.lang.String">130332629</attribute>
				<attribute name="type" class="java.lang.String">tertiary</attribute>
			</attributes>
		</link>
		<link id="102" from="3071803288" to="1435817911" length="15.931611710719626" freespeed="5.555555555555555" capacity="600.0" permlanes="1.0" oneway="1" modes="car" >
			<attributes>
				<attribute name="origid" class="java.lang.String">130332629</attribute>
				<attribute name="type" class="java.lang.String">tertiary</attribute>
			</attributes>
		</link>
		<link id="103" from="3071803288" to="5590646579" length="17.601440818795755" freespeed="5.555555555555555" capacity="600.0" permlanes="1.0" oneway="1" modes="car" >
			<attributes>
				<attribute name="origid" class="java.lang.String">130332629</attribute>
				<attribute name="type" class="java.lang.String">tertiary</attribute>
			</attributes>
		</link>
		<link id="104" from="5590646579" to="3071803288" length="17.601440818795755" freespeed="5.555555555555555" capacity="600.0" permlanes="1.0" oneway="1" modes="car" >
			<attributes>
				<attribute name="origid" class="java.lang.String">130332629</attribute>
				<attribute name="type" class="java.lang.String">tertiary</attribute>
			</attributes>
		</link>
		<link id="105" from="5590646579" to="3071803286" length="16.494185520010333" freespeed="5.555555555555555" capacity="600.0" permlanes="1.0" oneway="1" modes="car" >
			<attributes>
				<attribute name="origid" class="java.lang.String">130332629</attribute>
				<attribute name="type" class="java.lang.String">tertiary</attribute>
			</attributes>
		</link>
		<link id="106" from="3071803286" to="5590646579" length="16.494185520010333" freespeed="5.555555555555555" capacity="600.0" permlanes="1.0" oneway="1" modes="car" >
			<attributes>